LTspice 24.1.9 for Windows
Circuit: C:\Users\smage\Documents\LTspice\opamp based push pull amplifier circuit\opamp based push pull amplifier circuit.net
Start Time: Wed Jul 30 07:34:27 2025
solver = Normal
Maximum thread count: 16
tnom = 27
temp = 27
method = trap
Direct Newton iteration for .op point succeeded.
Total elapsed time: 0.310 seconds.

Files loaded:
C:\Users\smage\Documents\LTspice\opamp based push pull amplifier circuit\opamp based push pull amplifier circuit.net
C:\Users\smage\AppData\Local\LTspice\lib\cmp\standard.bjt
C:\Users\smage\AppData\Local\LTspice\lib\sub\ADI1.lib

