LTspice 24.1.9 for Windows
Circuit: C:\Users\smage\Documents\LTspice\Rectifier circuit\Rectifier circuit'.net
Start Time: Thu Jul 24 22:07:29 2025
solver = Normal
Maximum thread count: 16
tnom = 27
temp = 27
method = trap
Direct Newton iteration for .op point succeeded.
Total elapsed time: 0.226 seconds.

Files loaded:
C:\Users\smage\Documents\LTspice\Rectifier circuit\Rectifier circuit'.net
C:\Users\smage\AppData\Local\LTspice\lib\cmp\standard.dio
C:\Users\smage\AppData\Local\LTspice\lib\sub\ADI1.lib
C:\Users\smage\AppData\Local\LTspice\lib\sub\LM741.lib

