LTspice 24.1.9 for Windows
Circuit: C:\Users\smage\Documents\LTspice\BJT push pull amplifier circuit\BJT push pull amplifier circuit.net
Start Time: Wed Jul 30 07:35:38 2025
solver = Normal
Maximum thread count: 16
tnom = 27
temp = 27
method = trap
Direct Newton iteration for .op point succeeded.
Total elapsed time: 0.204 seconds.

Files loaded:
C:\Users\smage\Documents\LTspice\BJT push pull amplifier circuit\BJT push pull amplifier circuit.net
C:\Users\smage\AppData\Local\LTspice\lib\cmp\standard.bjt

